# --- log file ---

# 1. Initialization
units real
boundary p p p
atom_style molecular
neighbor 1 bin
neigh_modify delay 3 one 6000
pair_style hybrid lj/cut 14 sg 15 cb 30 # Fluid-fluid interactions have a cutoff of 15 Å, fluid-solid interactions have a cutoff of 30 Å
#kspace_style pppm 1.0e-4
# *--* C-C parameters *--*
bond_style harmonic
angle_style harmonic
dihedral_style opls
improper_style harmonic
# *--* C-C parameters *--*

# 2. Read the graphite platelet data file
# 3. Define potentials parameters
read_data ../geometry/carbonPlatelets/simulation_data/final.data  extra/atom/types 1
Reading data file ...
  orthogonal box = (-30 -30 -15) to (30 30 15)
  reading atoms ...
  480 atoms
  reading velocities ...
  480 velocities
  scanning bonds ...
  scanning angles ...
  scanning dihedrals ...
  scanning impropers ...
  orthogonal box = (-30 -30 -15) to (30 30 15)
  reading bonds ...
  676 bonds
  reading angles ...
  1268 angles
  reading dihedrals ...
  2394 dihedrals
  reading impropers ...
  396 impropers
Finding 1-2 1-3 1-4 neighbors ...
     3 = max # of 1-2 neighbors
     6 = max # of 1-3 neighbors
    18 = max # of 1-4 neighbors
    18 = max # of special neighbors
include PARM.lammps

#////////////////////////////////////////////////////////////////////////////////////////////////////////////////////////////////
#//     Filename: PARM.lammps
#//     File Type: LAMMPS input script
#//     Description: This script defines the parameters for the simulation of hydrogen absorption in graphite platelets.
#//     Author: Edoardo Cabiati
#//     Date: 2024-07-27
#////////////////////////////////////////////////////////////////////////////////////////////////////////////////////////////////

mass 2 2.016 # For now at least, in accordance with the paper by Wang and Johnson,
             # 1998, the hydrogen atoms are regarded as simple spherical atoms

# //////////////////////////////////////    C-C potentials    //////////////////////////////////////
pair_coeff 1 1 lj/cut 0.066 3.4
bond_coeff 1 469 1.4
angle_coeff 1 63 120
dihedral_coeff 1 0 7.25 0 0
improper_coeff 1 5 180
special_bonds lj 0.0 0.0 0.5
Finding 1-2 1-3 1-4 neighbors ...
     3 = max # of 1-2 neighbors
     6 = max # of 1-3 neighbors
    18 = max # of 1-4 neighbors
    18 = max # of special neighbors
# //////////////////////////////////////    C-C potentials    //////////////////////////////////////
# -------------------------------------------------------------------------------------------------
# //////////////////////////////////////    H-H potentials    //////////////////////////////////////
variable alpha equal 1.713          #|
variable sigma equal 1.567          #|
variable gamma equal 0.00993        #|
variable c6 equal 12.14             #|      The parameters are all in atomic units, the conversion to kcal/mol
variable c8 equal 215.2             #|      is performed in the pair_sg.cpp file
variable c9 equal 143.1             #|
variable c10 equal 4813.9           #|
variable rc equal 8.321             #|
pair_coeff 2 2 sg 1.713 1.567 0.00993 12.14 215.2 143.1 4813.9 8.321
#pair_coeff 2 2 sg 1.713 1.567 0.00993 12.14 215.2 143.1 4813.9 8.321 # H-H potentials
# //////////////////////////////////////    H-H potentials    //////////////////////////////////////
# -------------------------------------------------------------------------------------------------
# //////////////////////////////////////    C-H potentials    //////////////////////////////////////
# Parameters taken from the paper by Wang and Johnson, 1998
variable sigma_CC equal 3.43 # Å
variable sigma_HH equal 3.075 # Å
variable sigma_CH_geo equal sqrt(3.43*3.075)
variable sigma_CH_arit equal 0.5*(3.43+3.075)

variable P_par equal 0.57 # Å^3
variable P_perp equal 1.995 # Å^3
variable P_h equal 0.81 # Å^3
variable E_h equal 2.337e5*(1/503.23) # K * 1/503.23 kcal/mol/K = kcal/mol
variable E_c equal 1.39254e5*(1/503.23) # K * 1/503.23 kcal/mol/K = kcal/mol

variable epsilon_CB equal 5*4*4*v_E_h*v_E_c*v_P_h*(v_P_par+v_P_perp/2)/(v_sigma_CH_geo^6*(v_E_h+v_E_c)) # kcal/mol
# The following is a set of parameters taken from the paper "Theoretical investigation of the effect of graphite interlayer
# spacing on hydrogen absorption" by Rachel S. Aga, C. L. Fu, Maja Krčmar, and James R. Morris, where the CB potential is
# simplified into a 12-6 LJ potential 4*epsilon*⌊(sigma/r)^12 − (sigma/r)^6⌋ .
# variable epsilon equal 4*0.085094 # kcal/mol
# variable sigma equal 2.97 # Å

pair_coeff 1 2 cb 15.0109933717302 3.24765299870537 0.57 1.995
# //////////////////////////////////////    C-H potentials    //////////////////////////////////////

# 4. Generate the initial hydrogen atoms
lattice sc 3
Lattice spacing in x,y,z = 3 3 3
create_atoms 2 box ratio 0.01 428795
Created 40 atoms
lattice none 1
# Print the number of hydrogen atoms to file and delete the overlapping hydrogen atoms generated
variable hydrogen atom "type==2"
group hydrogen dynamic all var hydrogen
dynamic group hydrogen defined
variable nH equal count(hydrogen)
fix myat1 all ave/time 100 10 1000 v_nH file simulation_data/hydrogen_counts/hydrogenCount15.data

group           C type 1
480 atoms in group C
group           H2 type 2
40 atoms in group H2
delete_atoms    overlap 4 H2 C
System init for delete_atoms ...
Generated 0 of 1 mixed pair_coeff terms from geometric mixing rule
Deleted 7 atoms, new total = 513
reset_atoms     id sort yes
Generated 0 of 1 mixed pair_coeff terms from geometric mixing rule
Finding 1-2 1-3 1-4 neighbors ...
     3 = max # of 1-2 neighbors
     6 = max # of 1-3 neighbors
    18 = max # of 1-4 neighbors
    18 = max # of special neighbors

# Constrain carbon atoms
fix             myspr C spring/self 5

# 5. Equilibration step
thermo 1000
variable        T equal 298
velocity        all create 298 1234567 dist gaussian
#----------------------------------------------------------------
compute_modify thermo_temp dynamic yes
compute ctH2 H2 temp
compute_modify ctH2 dynamic yes
fix mynvt1 H2 nvt temp 298 298 0.1
fix_modify mynvt1 temp ctH2
compute ctC C temp
fix mynvt2 C nvt temp 298 298 0.1
fix_modify mynvt2 temp ctC
timestep 0.05
thermo_style custom step temp pe ke etotal press vol
#----------------------------------------------------------------

# Fix the motion of the outer carbons

dump            input_dump all atom 100 simulation_data/dumps/input15.lammpstrj

run 100000

CITE-CITE-CITE-CITE-CITE-CITE-CITE-CITE-CITE-CITE-CITE-CITE-CITE

Your simulation uses code contributions which should be cited:

- Type Label Framework: https://doi.org/10.1021/acs.jpcb.3c08419

@Article{Gissinger24,
 author = {Jacob R. Gissinger, Ilia Nikiforov, Yaser Afshar, Brendon Waters, Moon-ki Choi, Daniel S. Karls, Alexander Stukowski, Wonpil Im, Hendrik Heinz, Axel Kohlmeyer, and Ellad B. Tadmor},
 title = {Type Label Framework for Bonded Force Fields in LAMMPS},
 journal = {J. Phys. Chem. B},
 year =    2024,
 volume =  128,
 number =  13,
 pages =   {3282–-3297}
}

CITE-CITE-CITE-CITE-CITE-CITE-CITE-CITE-CITE-CITE-CITE-CITE-CITE

Generated 0 of 1 mixed pair_coeff terms from geometric mixing rule
Step          Temp          PotEng         KinEng         TotEng         Press          Volume
0   298            19862.737      454.80007      20317.537     -900.0745       108000
Averages over the last 51 of 101 rows, steps 50000 to 100000:
Temp PotEng KinEng TotEng Press Volume
300.044 16553.5 457.919 17011.4 -946.659 108000
Loop time of 88.7602 on 16 procs for 100000 steps with 513 atoms

# 6. Production step - GCMC
variable tfac equal 3.0/3.0
# variable xlo equal xlo+0.1
# variable xhi equal xhi-0.1
# variable ylo equal ylo+0.1
# variable yhi equal yhi-0.1
# variable zlo equal zlo+0.1
# variable zhi equal zhi-0.1
fix fgcmc H2 gcmc 100 100 0 2 65899 298 -0.5 0.1     tfac_insert 1 group H2     pressure 113
run 40000
Generated 0 of 1 mixed pair_coeff terms from geometric mixing rule
0 atoms in group FixGCMC:gcmc_exclusion_group:fgcmc
Step          Temp          PotEng         KinEng         TotEng         Press          Volume
100000   310.15094      16347.027      473.34453      16820.372     -836.25175      108000
Averages over the last 21 of 41 rows, steps 120000 to 140000:
Temp PotEng KinEng TotEng Press Volume
299.762 4964.89 811.512 5776.4 -1450.43 108000
Loop time of 689.579 on 16 procs for 40000 steps with 902 atoms

# After the number of hydrogen atoms has been equilibrated,
# compute density profile for the hydrogen atoms along the absorbate direction
compute cc1 H2 chunk/atom bin/1d z 0.0 0.1
fix 1 H2 ave/chunk 100 100 10000 cc1 density/mass norm all file simulation_data/density_profiles/density15.profile

run 10000
Generated 0 of 1 mixed pair_coeff terms from geometric mixing rule
Step          Temp          PotEng         KinEng         TotEng         Press          Volume
140000   306.52889      4834.2526      823.24767      5657.5003     -1356.1945      108000
Averages over the last 6 of 11 rows, steps 145000 to 150000:
Temp PotEng KinEng TotEng Press Volume
301.943 4820.6 823.539 5644.14 -1459.92 108000
Loop time of 191.116 on 16 procs for 10000 steps with 921 atoms

write_data     ensemble15.data
System init for write_data ...
Generated 0 of 1 mixed pair_coeff terms from geometric mixing rule
write_dump     all atom simulation_data/dumps/ensemble15.lammpstrj
