units           metal                 # Use 'metal' units (suitable for carbon structures)
dimension       3                     # 3D simulation
atom_style      molecular                  # Define the atom style (full for compatibility with later simulations)
boundary        p p p                 # No periodic boundary conditions
pair_style lj/cut 14

# ---------------------------]* C-C POTENTIALS *[----------------------------
# Specify the bond, angle, dihedral, and improper styles for the C-C bonds (potentials)
bond_style harmonic
angle_style harmonic
dihedral_style opls
improper_style harmonic
special_bonds lj 0.0 0.0 0.5
# ---------------------------]* C-C POTENTIALS *[----------------------------

# Specify some variables:
# - Lx, Ly  = 60/120 Å  to accomodate 500 Å^2 surface are of graphene (120 Å for MCB potential)
variable        Lx equal "30"            # Define the in-plane dimensions
variable        Ly equal "30"
variable        H equal "15"         # Define the out-of-plane dimension
# Define the number of graphite platelets and corresponding Lz dimension for the simulation box
if "$H != 9 && $H != 15 && $H != 30 && $H != 60" then "print 'Invalid H value. Please use 9, 15, 30, or 60'"     "quit"
variable max_layers equal 2.
variable Lz equal 15
print 'Importing platelet_n2.data'
Importing platelet_n2.data
read_data templates/platelet_n2.data
Reading data file ...
  orthogonal box = (-19.561795 -17.238 -28.325) to (40.438205 42.762 31.675)
  reading atoms ...
  480 atoms
  scanning bonds ...
  scanning angles ...
  scanning dihedrals ...
  scanning impropers ...
  orthogonal box = (-19.561795 -17.238 -28.325) to (40.438205 42.762 31.675)
  reading bonds ...
  676 bonds
  reading angles ...
  1268 angles
  reading dihedrals ...
  2394 dihedrals
  reading impropers ...
  396 impropers
Finding 1-2 1-3 1-4 neighbors ...
     3 = max # of 1-2 neighbors
     6 = max # of 1-3 neighbors
    18 = max # of 1-4 neighbors
    18 = max # of special neighbors

# ---------------------------]* C-C POTENTIALS PARAMETERS *[----------------------------

include ../carbonBonds/carbonParameters.lammps

#////////////////////////////////////////////////////////////////////////////////////////////////////////////////////////////////
#//     Filename: carbonParameters.lammps
#//     File Type: LAMMPS input script
#//     Description: The following script containes the parameters for the C-C bonds in the graphite platelets generated in the script generate_platelets.lammps
#//     Author: Edoardo Cabiati
#//     Date: 2024-07-02
#////////////////////////////////////////////////////////////////////////////////////////////////////////////////////////////////

# ---------------------------]* C-C POTENTIALS PARAMETERS *[----------------------------

# The parameters are taken from the OPLS-AA (Optimised Potentials for Liquid Simulations-All-Atom) force field
# https://dasher.wustl.edu/tinker/distribution/params/oplsaa.prm
pair_coeff 1 1 0.066 3.4
bond_coeff 1 469 1.4
angle_coeff 1 63 120
dihedral_coeff 1 0 7.25 0 0
improper_coeff 1 5 180

# ---------------------------]* C-C POTENTIALS PARAMETERS *[----------------------------

# ---------------------------]* C-C POTENTIALS PARAMETERS *[----------------------------

# *****************************      SETTING UP THE SYSTEM      ******************************

# First, center the platelets
group           carbon_atoms type 1
480 atoms in group carbon_atoms
variable        carbon_xcm equal -1*xcm(carbon_atoms,x)
variable        carbon_ycm equal -1*xcm(carbon_atoms,y)
Center of mass of the platelet: -10.4382043500001 -12.7620000208335
displace_atoms  carbon_atoms move -10.4382043500001 -12.7620000208335 0
Displacing atoms ...

label           setup_loop
# Define the variables for the restucuring of the simulation settings
variable        groups index grp_1 grp_2 grp_3 grp_4
variable        regions index reg_1 reg_2 reg_3 reg_4
variable        a loop 2
# For each time the loop is executed, bound the atoms in the successive, stacked layers and
# translate them to the correct position in the simulation box
    variable    quote0 equal 3.35*(v_a-1)
    variable    quote1 equal 3.35*(v_a-1)+0.1
    variable    quote equal -1*15+15/2-0+$H*($a-1)
    variable    quote equal -1*15+15/2-0+15*($a-1)
    variable    quote equal -1*15+15/2-0+15*(1-1)
    region      reg_1 block -30 30 -30 30 0 0.1 units box
    group       grp_1 region reg_1
240 atoms in group grp_1
    displace_atoms grp_1 move 0 0 -7.5 units box
Displacing atoms ...

# Next iteration
next            a
next            regions
next            groups
jump            SELF setup_loop
# Define the variables for the restucuring of the simulation settings
variable        groups index grp_1 grp_2 grp_3 grp_4
variable        regions index reg_1 reg_2 reg_3 reg_4
variable        a loop 2
# For each time the loop is executed, bound the atoms in the successive, stacked layers and
# translate them to the correct position in the simulation box
    variable    quote0 equal 3.35*(v_a-1)
    variable    quote1 equal 3.35*(v_a-1)+0.1
    variable    quote equal -1*15+15/2-3.35+$H*($a-1)
    variable    quote equal -1*15+15/2-3.35+15*($a-1)
    variable    quote equal -1*15+15/2-3.35+15*(2-1)
    region      reg_2 block -30 30 -30 30 3.35 3.45 units box
    group       grp_2 region reg_2
240 atoms in group grp_2
    displace_atoms grp_2 move 0 0 4.15 units box
Displacing atoms ...

# Next iteration
next            a
next            regions
next            groups
jump            SELF setup_loop

change_box      all x final -30 30 y final -30 30 z final -15 15 units box
Changing box ...
  orthogonal box = (-30 -17.238 -28.325) to (30 42.762 31.675)
  orthogonal box = (-30 -30 -28.325) to (30 30 31.675)
  orthogonal box = (-30 -30 -15) to (30 30 15)
reset_atoms     id sort yes
Generated 0 of 0 mixed pair_coeff terms from geometric mixing rule
Finding 1-2 1-3 1-4 neighbors ...
     3 = max # of 1-2 neighbors
     6 = max # of 1-3 neighbors
    18 = max # of 1-4 neighbors
    18 = max # of special neighbors

# Define the atoms in the outer part of each platelet which will be fixed
variable        L_min equal 11.5
region          rfix_out block -11.5 11.5 -11.5 11.5 -11.5 11.5 units box side out
region          rfix_in block -11.5 11.5 -11.5 11.5 -11.5 11.5 units box side in
group           fix_carbons region rfix_out
84 atoms in group fix_carbons
group           mob_carbons region rfix_in
396 atoms in group mob_carbons

# *****************************      EQUILIBRATION RUN      ******************************

thermo 50
thermo_style custom step pe ke etotal temp lx ly lz press atoms
timestep .001

# Minimize at 0K will likely not be necessary, so we skip it

# Heat the system to the desired temperature
variable        T equal 298
variable        Tstart equal 500
velocity        mob_carbons create 500 48455 mom yes rot yes
compute         Tmob mob_carbons temp
fix             nvt1 mob_carbons nvt temp 500 298 $(125.0*dt)
fix             nvt1 mob_carbons nvt temp 500 298 0.125
fix_modify      nvt1 temp Tmob
# Set up the output files schema
fix             myat1 all ave/time 10 100 1000 c_Tmob file temperature_inner.dat
# fix           myat2 all ave/time 10 100 1000 vol lx ly lz file dimensions.dat
# fix           myat3 all ave/time 10 100 1000 pe file potential_energy.dat

# Fix the motion of the outer carbons
fix             sf fix_carbons setforce 0.0 0.0 0.0
velocity        fix_carbons set 0.0 0.0 0.0

dump            final_dump all atom 1 final.lammpstrj
thermo_modify temp Tmob

run 1000

CITE-CITE-CITE-CITE-CITE-CITE-CITE-CITE-CITE-CITE-CITE-CITE-CITE

Your simulation uses code contributions which should be cited:

- Type Label Framework: https://doi.org/10.1021/acs.jpcb.3c08419

@Article{Gissinger24,
 author = {Jacob R. Gissinger, Ilia Nikiforov, Yaser Afshar, Brendon Waters, Moon-ki Choi, Daniel S. Karls, Alexander Stukowski, Wonpil Im, Hendrik Heinz, Axel Kohlmeyer, and Ellad B. Tadmor},
 title = {Type Label Framework for Bonded Force Fields in LAMMPS},
 journal = {J. Phys. Chem. B},
 year =    2024,
 volume =  128,
 number =  13,
 pages =   {3282–-3297}
}

CITE-CITE-CITE-CITE-CITE-CITE-CITE-CITE-CITE-CITE-CITE-CITE-CITE

Generated 0 of 0 mixed pair_coeff terms from geometric mixing rule
Step         PotEng         KinEng         TotEng          Temp            Lx             Ly             Lz           Press         Atoms
0   19933.952      25.528879      19959.481      500            60             60             30            -47698.107            480
Averages over the last 11 of 21 rows, steps 500 to 1000:
PotEng KinEng TotEng Temp Lx Ly Lz Press Atoms
18703 16.6849 18719.7 326.785 60 60 30 -64944.7 480
Loop time of 0.849077 on 1 procs for 1000 steps with 480 atoms

unfix           nvt1

# After the NVT run, run a batch of minimiazation steps.
minimize 1.0e-4 1.0e-6 10 10
Generated 0 of 0 mixed pair_coeff terms from geometric mixing rule
Step         PotEng         KinEng         TotEng          Temp            Lx             Ly             Lz           Press         Atoms
1000   18702.425      14.857326      18717.282      290.99056      60             60             30            -66716.615            480
Loop time of 0.00659346 on 1 procs for 3 steps with 480 atoms

Minimization stats:
  Stopping criterion = energy tolerance
  Energy initial, next-to-last, final =
  Force two-norm initial, final = 190.28502 47.993614
  Force max component initial, final = 20.567737 4.9168838
  Final line search alpha, max atom move = 0.011862002 0.058324084
  Iterations, force evaluations = 3 6

velocity        mob_carbons create 298 123456 dist gaussian
run 50
Generated 0 of 0 mixed pair_coeff terms from geometric mixing rule
Step         PotEng         KinEng         TotEng          Temp            Lx             Ly             Lz           Press         Atoms
1003   18684.999      15.215212      18700.215      298            60             60             30            -66362.606            480
Loop time of 0.0432791 on 1 procs for 50 steps with 480 atoms

minimize 1.0e-4 1.0e-6 10 10
Generated 0 of 0 mixed pair_coeff terms from geometric mixing rule
Step         PotEng         KinEng         TotEng          Temp            Lx             Ly             Lz           Press         Atoms
1053   18684.999      15.215212      18700.215      298            60             60             30            -66362.606            480
Loop time of 0.00272979 on 1 procs for 1 steps with 480 atoms

Minimization stats:
  Stopping criterion = energy tolerance
  Energy initial, next-to-last, final =
  Force two-norm initial, final = 47.993614 34.346238
  Force max component initial, final = 4.9168838 3.4271579
  Final line search alpha, max atom move = 0.020338085 0.069701827
  Iterations, force evaluations = 1 2

velocity        mob_carbons create 298 1234567 dist gaussian
run 50
Generated 0 of 0 mixed pair_coeff terms from geometric mixing rule
Step         PotEng         KinEng         TotEng          Temp            Lx             Ly             Lz           Press         Atoms
1054   18684.422      15.215212      18699.637      298            60             60             30            -66302.267            480
Loop time of 0.0444277 on 1 procs for 50 steps with 480 atoms

minimize 1.0e-4 1.0e-6 10 10
Generated 0 of 0 mixed pair_coeff terms from geometric mixing rule
Step         PotEng         KinEng         TotEng          Temp            Lx             Ly             Lz           Press         Atoms
1104   18684.422      15.215212      18699.637      298            60             60             30            -66302.267            480
Loop time of 0.00272129 on 1 procs for 1 steps with 480 atoms

Minimization stats:
  Stopping criterion = energy tolerance
  Energy initial, next-to-last, final =
  Force two-norm initial, final = 34.346238 28.915808
  Force max component initial, final = 3.4271579 2.5534081
  Final line search alpha, max atom move = 0.029178697 0.074505121
  Iterations, force evaluations = 1 2

velocity        mob_carbons create 298 12345678 dist gaussian
run 50
Generated 0 of 0 mixed pair_coeff terms from geometric mixing rule
Step         PotEng         KinEng         TotEng          Temp            Lx             Ly             Lz           Press         Atoms
1105   18684.133      15.215212      18699.348      298            60             60             30            -66264.302            480
Loop time of 0.0436488 on 1 procs for 50 steps with 480 atoms

write_data      final.data nocoeff nofix
System init for write_data ...
Generated 0 of 0 mixed pair_coeff terms from geometric mixing rule
