# --- log file ---

variable pre equal 112 # desired pressure (Atm)
variable tem equal 300 # desired temperature (K)

variable k1 equal 5.5 # spring constant
variable k2 equal 3.5 # spring constant

units real
atom_style molecular
boundary p p p
neighbor 1.0 bin
neigh_modify delay 3 one 6000
bond_style harmonic
angle_style harmonic
dihedral_style opls
improper_style harmonic
pair_style hybrid lj/cut 14 sg 15 cb 30 # Fluid-fluid interactions have a cutoff of 15 Å, fluid-solid interactions have a cutoff of 30 Å
# *--* C-C parameters *--*
bond_style harmonic
angle_style harmonic
dihedral_style opls
improper_style harmonic
# *--* C-C parameters *--*

# 2. Read the graphite platelet data file and define potentials parameters
read_data       ../geometry/carbonPlatelets/simulation_data/abpot_sys.data  extra/atom/types 1
Reading data file ...
  orthogonal box = (-30 -30 -30) to (30 30 30)
  reading atoms ...
  480 atoms
  reading velocities ...
  480 velocities
  scanning bonds ...
  scanning angles ...
  scanning dihedrals ...
  scanning impropers ...
  orthogonal box = (-30 -30 -30) to (30 30 30)
  reading bonds ...
  676 bonds
  reading angles ...
  1268 angles
  reading dihedrals ...
  2394 dihedrals
  reading impropers ...
  396 impropers
Finding 1-2 1-3 1-4 neighbors ...
     3 = max # of 1-2 neighbors
     6 = max # of 1-3 neighbors
    18 = max # of 1-4 neighbors
    18 = max # of special neighbors
include         PARM.lammps

#////////////////////////////////////////////////////////////////////////////////////////////////////////////////////////////////
#//     Filename: PARM.lammps
#//     File Type: LAMMPS input script
#//     Description: This script defines the parameters for the simulation of hydrogen absorption in graphite platelets.
#//     Author: Edoardo Cabiati
#//     Date: 2024-07-27
#////////////////////////////////////////////////////////////////////////////////////////////////////////////////////////////////

mass 2 2.016 # For now at least, in accordance with the paper by Wang and Johnson,
             # 1998, the hydrogen atoms are regarded as simple spherical atoms

# //////////////////////////////////////    C-C potentials    //////////////////////////////////////
pair_coeff 1 1 lj/cut 0.066 3.4
bond_coeff 1 469 1.4
angle_coeff 1 63 120
dihedral_coeff 1 0 7.25 0 0
improper_coeff 1 5 180
special_bonds lj 0.0 0.0 0.5
Finding 1-2 1-3 1-4 neighbors ...
     3 = max # of 1-2 neighbors
     6 = max # of 1-3 neighbors
    18 = max # of 1-4 neighbors
    18 = max # of special neighbors
# //////////////////////////////////////    C-C potentials    //////////////////////////////////////
# -------------------------------------------------------------------------------------------------
# //////////////////////////////////////    H-H potentials    //////////////////////////////////////
variable alpha equal 1.713          #|
variable sigma equal 1.567          #|
variable gamma equal 0.00993        #|
variable c6 equal 12.14             #|      The parameters are all in atomic units, the conversion to kcal/mol
variable c8 equal 215.2             #|      is performed in the pair_sg.cpp file
variable c9 equal 143.1             #|
variable c10 equal 4813.9           #|
variable rc equal 8.321             #|
pair_coeff 2 2 sg 1.713 1.567 0.00993 12.14 215.2 143.1 4813.9 8.321
#pair_coeff 2 2 sg 1.713 1.567 0.00993 12.14 215.2 143.1 4813.9 8.321 # H-H potentials
# //////////////////////////////////////    H-H potentials    //////////////////////////////////////
# -------------------------------------------------------------------------------------------------
# //////////////////////////////////////    C-H potentials    //////////////////////////////////////
variable sigma_CC equal 3.43 # Å
variable sigma_HH equal 3.075 # Å
variable sigma_CH_geo equal sqrt(3.43*3.075)
variable sigma_CH_arit equal 0.5*(3.43+3.075)

variable P_par equal 0.57 # Å^3
variable P_perp equal 1.995 # Å^3
variable P_h equal 0.81 # Å^3
variable E_h equal 2.337e5*(1/503.23) # K * 1/503.23 kcal/mol/K = kcal/mol
variable E_c equal 1.39254e5*(1/503.23) # K * 1/503.23 kcal/mol/K = kcal/mol

variable epsilon equal 4*v_E_h*v_E_c*v_P_h*(v_P_par+v_P_perp/2)/(v_sigma_CH_geo^6*(v_E_h+v_E_c)) # kcal/mol

pair_coeff 1 2 cb 0.750549668586509 3.24765299870537 0.57 1.995
#pair_coeff 1 2 lj/cut 0.3025 2.065
# //////////////////////////////////////    C-H potentials    //////////////////////////////////////

# 3. Add a single hydrogen molecule to the system, close to the center of the first platelet
create_atoms    2 single 0 0 -2
Created 1 atoms

group           C type 1
480 atoms in group C
group           H2 type 2
1 atoms in group H2

# 4. Equilibration
timestep        0.05
fix             mytth1 C spring/self 3.5
velocity        all create 300 48 rot yes mom yes dist gaussian
fix             mynpt all npt temp 300 300 100 x 112 112 1000 y 112 112 1000

thermo          10000
dump            dump all atom 1000 simulation_data/absorption_pot.lammpstrj

run             20000

CITE-CITE-CITE-CITE-CITE-CITE-CITE-CITE-CITE-CITE-CITE-CITE-CITE

Your simulation uses code contributions which should be cited:

- Type Label Framework: https://doi.org/10.1021/acs.jpcb.3c08419

@Article{Gissinger24,
 author = {Jacob R. Gissinger, Ilia Nikiforov, Yaser Afshar, Brendon Waters, Moon-ki Choi, Daniel S. Karls, Alexander Stukowski, Wonpil Im, Hendrik Heinz, Axel Kohlmeyer, and Ellad B. Tadmor},
 title = {Type Label Framework for Bonded Force Fields in LAMMPS},
 journal = {J. Phys. Chem. B},
 year =    2024,
 volume =  128,
 number =  13,
 pages =   {3282–-3297}
}

CITE-CITE-CITE-CITE-CITE-CITE-CITE-CITE-CITE-CITE-CITE-CITE-CITE

Generated 0 of 1 mixed pair_coeff terms from geometric mixing rule
Step          Temp          E_pair         E_mol          TotEng         Press          Volume
0   300            308.43814      19603.922      20341.597     -432.48369      216000
Loop time of 7.94527 on 48 procs for 20000 steps with 481 atoms

unfix           mynpt
unfix           mytth1

# 5. Umbrella sampling
fix             mynvt all nvt temp 300 300 100
fix             mytth1 C spring/self 3.5

variable        cpt loop 51
label           loop
variable        zdes equal  -15+0.60*(1-1)
variable        zave equal xcm(H2,z)
fix             mytth2 H2 spring tether 5.5 2.5 2.5 -15 0
run             10000
Generated 0 of 1 mixed pair_coeff terms from geometric mixing rule
Step          Temp          E_pair         E_mol          TotEng         Press
20000   322.02648      371.05675      18538.378      19370.187     -418.66256
Loop time of 3.06043 on 48 procs for 10000 steps with 481 atoms

fix             myat1 all ave/time 1000 10 10000 v_zave v_zdes file simulation_data/abpot/1.dat
run             50000
Generated 0 of 1 mixed pair_coeff terms from geometric mixing rule
Step          Temp          E_pair         E_mol          TotEng         Press
30000   278.99723      334.89965      18587.339      19321.425     -1152.575
Loop time of 14.7575 on 48 procs for 50000 steps with 481 atoms

unfix           myat1
next            cpt
jump            SELF loop
variable        zdes equal  -15+0.60*(2-1)
variable        zave equal xcm(H2,z)
fix             mytth2 H2 spring tether 5.5 2.5 2.5 -14.4 0
run             10000
Generated 0 of 1 mixed pair_coeff terms from geometric mixing rule
Step          Temp          E_pair         E_mol          TotEng         Press
80000   289.69146      400.91715      18528.13       19343.534      725.82839
Loop time of 2.95966 on 48 procs for 10000 steps with 481 atoms

fix             myat1 all ave/time 1000 10 10000 v_zave v_zdes file simulation_data/abpot/2.dat
run             50000
Generated 0 of 1 mixed pair_coeff terms from geometric mixing rule
Step          Temp          E_pair         E_mol          TotEng         Press
90000   311.68624      352.52475      18567.97       19366.452     -566.19099
Loop time of 14.7222 on 48 procs for 50000 steps with 481 atoms

unfix           myat1
next            cpt
jump            SELF loop
variable        zdes equal  -15+0.60*(3-1)
variable        zave equal xcm(H2,z)
fix             mytth2 H2 spring tether 5.5 2.5 2.5 -13.8 0
run             10000
Generated 0 of 1 mixed pair_coeff terms from geometric mixing rule
Step          Temp          E_pair         E_mol          TotEng         Press
140000   297.50454      380.8963       18554.97       19361.532      101.86836
Loop time of 3.01275 on 48 procs for 10000 steps with 481 atoms

fix             myat1 all ave/time 1000 10 10000 v_zave v_zdes file simulation_data/abpot/3.dat
run             50000
Generated 0 of 1 mixed pair_coeff terms from geometric mixing rule
Step          Temp          E_pair         E_mol          TotEng         Press
150000   284.42166      371.88898      18524.794      19303.631     -19.529903
Loop time of 14.4267 on 48 procs for 50000 steps with 481 atoms

unfix           myat1
next            cpt
jump            SELF loop
variable        zdes equal  -15+0.60*(4-1)
variable        zave equal xcm(H2,z)
fix             mytth2 H2 spring tether 5.5 2.5 2.5 -13.2 0
run             10000
Generated 0 of 1 mixed pair_coeff terms from geometric mixing rule
Step          Temp          E_pair         E_mol          TotEng         Press
200000   304.37964      367.67934      18551.893      19355.076     -104.69869
Loop time of 2.91329 on 48 procs for 10000 steps with 481 atoms

fix             myat1 all ave/time 1000 10 10000 v_zave v_zdes file simulation_data/abpot/4.dat
run             50000
Generated 0 of 1 mixed pair_coeff terms from geometric mixing rule
Step          Temp          E_pair         E_mol          TotEng         Press
210000   292.33477      382.94286      18524.116      19325.328      191.07196
Loop time of 14.3314 on 48 procs for 50000 steps with 481 atoms

unfix           myat1
next            cpt
jump            SELF loop
variable        zdes equal  -15+0.60*(5-1)
variable        zave equal xcm(H2,z)
fix             mytth2 H2 spring tether 5.5 2.5 2.5 -12.6 0
run             10000
Generated 0 of 1 mixed pair_coeff terms from geometric mixing rule
Step          Temp          E_pair         E_mol          TotEng         Press
260000   292.87977      366.53286      18529.233      19314.815     -194.26435
Loop time of 2.78898 on 48 procs for 10000 steps with 481 atoms

fix             myat1 all ave/time 1000 10 10000 v_zave v_zdes file simulation_data/abpot/5.dat
run             50000
Generated 0 of 1 mixed pair_coeff terms from geometric mixing rule
Step          Temp          E_pair         E_mol          TotEng         Press
270000   305.94268      368.57954      18529.777      19336.096     -64.288205
Loop time of 14.8945 on 48 procs for 50000 steps with 481 atoms

unfix           myat1
next            cpt
jump            SELF loop
variable        zdes equal  -15+0.60*(6-1)
variable        zave equal xcm(H2,z)
fix             mytth2 H2 spring tether 5.5 2.5 2.5 -12 0
run             10000
Generated 0 of 1 mixed pair_coeff terms from geometric mixing rule
Step          Temp          E_pair         E_mol          TotEng         Press
320000   300.12323      364.11316      18559.331      19352.857     -168.64133
Loop time of 3.01969 on 48 procs for 10000 steps with 481 atoms

fix             myat1 all ave/time 1000 10 10000 v_zave v_zdes file simulation_data/abpot/6.dat
run             50000
Generated 0 of 1 mixed pair_coeff terms from geometric mixing rule
Step          Temp          E_pair         E_mol          TotEng         Press
330000   304.34427      381.74345      18537.898      19355.094      155.18617
Loop time of 14.666 on 48 procs for 50000 steps with 481 atoms

unfix           myat1
next            cpt
jump            SELF loop
variable        zdes equal  -15+0.60*(7-1)
variable        zave equal xcm(H2,z)
fix             mytth2 H2 spring tether 5.5 2.5 2.5 -11.4 0
run             10000
Generated 0 of 1 mixed pair_coeff terms from geometric mixing rule
Step          Temp          E_pair         E_mol          TotEng         Press
380000   301.26352      363.17816      18535.549      19329.772     -162.30051
Loop time of 2.9089 on 48 procs for 10000 steps with 481 atoms

fix             myat1 all ave/time 1000 10 10000 v_zave v_zdes file simulation_data/abpot/7.dat
run             50000
Generated 0 of 1 mixed pair_coeff terms from geometric mixing rule
Step          Temp          E_pair         E_mol          TotEng         Press
390000   288.28702      368.33018      18515.528      19296.336     -167.45538
Loop time of 14.5743 on 48 procs for 50000 steps with 481 atoms

unfix           myat1
next            cpt
jump            SELF loop
variable        zdes equal  -15+0.60*(8-1)
variable        zave equal xcm(H2,z)
fix             mytth2 H2 spring tether 5.5 2.5 2.5 -10.8 0
run             10000
Generated 0 of 1 mixed pair_coeff terms from geometric mixing rule
Step          Temp          E_pair         E_mol          TotEng         Press
440000   282.43254      368.67844      18538.893      19311.673     -214.82201
Loop time of 2.90849 on 48 procs for 10000 steps with 481 atoms

fix             myat1 all ave/time 1000 10 10000 v_zave v_zdes file simulation_data/abpot/8.dat
run             50000
Generated 0 of 1 mixed pair_coeff terms from geometric mixing rule
Step          Temp          E_pair         E_mol          TotEng         Press
450000   292.06734      375.82771      18533.971      19327.686      58.876223
Loop time of 14.968 on 48 procs for 50000 steps with 481 atoms

unfix           myat1
next            cpt
jump            SELF loop
variable        zdes equal  -15+0.60*(9-1)
variable        zave equal xcm(H2,z)
fix             mytth2 H2 spring tether 5.5 2.5 2.5 -10.2 0
run             10000
Generated 0 of 1 mixed pair_coeff terms from geometric mixing rule
Step          Temp          E_pair         E_mol          TotEng         Press
500000   276.79878      373.78686      18510.093      19279.921     -41.575381
Loop time of 2.94845 on 48 procs for 10000 steps with 481 atoms

fix             myat1 all ave/time 1000 10 10000 v_zave v_zdes file simulation_data/abpot/9.dat
run             50000
Generated 0 of 1 mixed pair_coeff terms from geometric mixing rule
Step          Temp          E_pair         E_mol          TotEng         Press
510000   296.63591      371.74781      18516.631      19312.802     -178.23745
Loop time of 15.1634 on 48 procs for 50000 steps with 481 atoms

unfix           myat1
next            cpt
jump            SELF loop
variable        zdes equal  -15+0.60*(10-1)
variable        zave equal xcm(H2,z)
fix             mytth2 H2 spring tether 5.5 2.5 2.5 -9.6 0
run             10000
Generated 0 of 1 mixed pair_coeff terms from geometric mixing rule
Step          Temp          E_pair         E_mol          TotEng         Press
560000   322.72643      369.53118      18544.964      19376.248     -120.74943
Loop time of 3.11104 on 48 procs for 10000 steps with 481 atoms

fix             myat1 all ave/time 1000 10 10000 v_zave v_zdes file simulation_data/abpot/10.dat
run             50000
Generated 0 of 1 mixed pair_coeff terms from geometric mixing rule
Step          Temp          E_pair         E_mol          TotEng         Press
570000   301.94518      369.72454      18559.942      19361.686     -334.41114
Loop time of 15.4671 on 48 procs for 50000 steps with 481 atoms

unfix           myat1
next            cpt
jump            SELF loop
variable        zdes equal  -15+0.60*(11-1)
variable        zave equal xcm(H2,z)
fix             mytth2 H2 spring tether 5.5 2.5 2.5 -9 0
run             10000
Generated 0 of 1 mixed pair_coeff terms from geometric mixing rule
Step          Temp          E_pair         E_mol          TotEng         Press
620000   319.57058      380.22988      18544.911      19382.379      48.687321
Loop time of 3.07727 on 48 procs for 10000 steps with 481 atoms

fix             myat1 all ave/time 1000 10 10000 v_zave v_zdes file simulation_data/abpot/11.dat
run             50000
Generated 0 of 1 mixed pair_coeff terms from geometric mixing rule
Step          Temp          E_pair         E_mol          TotEng         Press
630000   307.42136      388.7432       18524.497      19353.095      130.15624
Loop time of 15.5893 on 48 procs for 50000 steps with 481 atoms

unfix           myat1
next            cpt
jump            SELF loop
variable        zdes equal  -15+0.60*(12-1)
variable        zave equal xcm(H2,z)
fix             mytth2 H2 spring tether 5.5 2.5 2.5 -8.4 0
run             10000
Generated 0 of 1 mixed pair_coeff terms from geometric mixing rule
Step          Temp          E_pair         E_mol          TotEng         Press
680000   289.51383      384.27492      18530.77       19329.278     -94.021284
Loop time of 3.03557 on 48 procs for 10000 steps with 481 atoms

fix             myat1 all ave/time 1000 10 10000 v_zave v_zdes file simulation_data/abpot/12.dat
run             50000
Generated 0 of 1 mixed pair_coeff terms from geometric mixing rule
Step          Temp          E_pair         E_mol          TotEng         Press
690000   300.34401      393.12944      18523.421      19346.28       95.960232
Loop time of 15.4616 on 48 procs for 50000 steps with 481 atoms

unfix           myat1
next            cpt
jump            SELF loop
variable        zdes equal  -15+0.60*(13-1)
variable        zave equal xcm(H2,z)
fix             mytth2 H2 spring tether 5.5 2.5 2.5 -7.8 0
run             10000
Generated 0 of 1 mixed pair_coeff terms from geometric mixing rule
Step          Temp          E_pair         E_mol          TotEng         Press
740000   300.09514      395.11585      18520.563      19345.051      26.748781
Loop time of 3.1305 on 48 procs for 10000 steps with 481 atoms

fix             myat1 all ave/time 1000 10 10000 v_zave v_zdes file simulation_data/abpot/13.dat
run             50000
Generated 0 of 1 mixed pair_coeff terms from geometric mixing rule
Step          Temp          E_pair         E_mol          TotEng         Press
750000   302.96839      386.38924      18502.893      19322.766     -67.372433
Loop time of 15.4716 on 48 procs for 50000 steps with 481 atoms

unfix           myat1
next            cpt
jump            SELF loop
variable        zdes equal  -15+0.60*(14-1)
variable        zave equal xcm(H2,z)
fix             mytth2 H2 spring tether 5.5 2.5 2.5 -7.2 0
run             10000
Generated 0 of 1 mixed pair_coeff terms from geometric mixing rule
Step          Temp          E_pair         E_mol          TotEng         Press
800000   299.54338      396.01948      18551.245      19375.848      22.292478
Loop time of 3.15059 on 48 procs for 10000 steps with 481 atoms

fix             myat1 all ave/time 1000 10 10000 v_zave v_zdes file simulation_data/abpot/14.dat
run             50000
Generated 0 of 1 mixed pair_coeff terms from geometric mixing rule
Step          Temp          E_pair         E_mol          TotEng         Press
810000   300.21646      387.21564      18520.562      19337.324     -75.411173
Loop time of 15.4863 on 48 procs for 50000 steps with 481 atoms

unfix           myat1
next            cpt
jump            SELF loop
variable        zdes equal  -15+0.60*(15-1)
variable        zave equal xcm(H2,z)
fix             mytth2 H2 spring tether 5.5 2.5 2.5 -6.6 0
run             10000
Generated 0 of 1 mixed pair_coeff terms from geometric mixing rule
Step          Temp          E_pair         E_mol          TotEng         Press
860000   314.42073      391.34071      18510.382      19351.593     -31.56975
Loop time of 3.19538 on 48 procs for 10000 steps with 481 atoms

fix             myat1 all ave/time 1000 10 10000 v_zave v_zdes file simulation_data/abpot/15.dat
run             50000
Generated 0 of 1 mixed pair_coeff terms from geometric mixing rule
Step          Temp          E_pair         E_mol          TotEng         Press
870000   316.94765      395.49705      18480.254      19329.236      121.41461
Loop time of 15.6766 on 48 procs for 50000 steps with 481 atoms

unfix           myat1
next            cpt
jump            SELF loop
variable        zdes equal  -15+0.60*(16-1)
variable        zave equal xcm(H2,z)
fix             mytth2 H2 spring tether 5.5 2.5 2.5 -6 0
run             10000
Generated 0 of 1 mixed pair_coeff terms from geometric mixing rule
Step          Temp          E_pair         E_mol          TotEng         Press
920000   294.67412      392.48908      18529.643      19343.748     -17.603722
Loop time of 3.08214 on 48 procs for 10000 steps with 481 atoms

fix             myat1 all ave/time 1000 10 10000 v_zave v_zdes file simulation_data/abpot/16.dat
run             50000
Generated 0 of 1 mixed pair_coeff terms from geometric mixing rule
Step          Temp          E_pair         E_mol          TotEng         Press
930000   296.97137      381.97596      18540.882      19347.761     -356.38351
Loop time of 15.2526 on 48 procs for 50000 steps with 481 atoms

unfix           myat1
next            cpt
jump            SELF loop
variable        zdes equal  -15+0.60*(17-1)
variable        zave equal xcm(H2,z)
fix             mytth2 H2 spring tether 5.5 2.5 2.5 -5.4 0
run             10000
Generated 0 of 1 mixed pair_coeff terms from geometric mixing rule
Step          Temp          E_pair         E_mol          TotEng         Press
980000   311.64339      378.7138       18553.08       19377.69      -490.84212
Loop time of 3.15611 on 48 procs for 10000 steps with 481 atoms

fix             myat1 all ave/time 1000 10 10000 v_zave v_zdes file simulation_data/abpot/17.dat
run             50000
Generated 0 of 1 mixed pair_coeff terms from geometric mixing rule
Step          Temp          E_pair         E_mol          TotEng         Press
990000   293.38102      387.34496      18521.885      19328.996     -223.0737
Loop time of 15.5344 on 48 procs for 50000 steps with 481 atoms

unfix           myat1
next            cpt
jump            SELF loop
variable        zdes equal  -15+0.60*(18-1)
variable        zave equal xcm(H2,z)
fix             mytth2 H2 spring tether 5.5 2.5 2.5 -4.8 0
run             10000
Generated 0 of 1 mixed pair_coeff terms from geometric mixing rule
Step          Temp          E_pair         E_mol          TotEng         Press
1040000   302.62054      381.97921      18527.902      19342.867     -282.10536
Loop time of 3.08153 on 48 procs for 10000 steps with 481 atoms

fix             myat1 all ave/time 1000 10 10000 v_zave v_zdes file simulation_data/abpot/18.dat
run             50000
Generated 0 of 1 mixed pair_coeff terms from geometric mixing rule
Step          Temp          E_pair         E_mol          TotEng         Press
1050000   312.30038      380.13288      18525.515      19352.484     -319.59583
Loop time of 15.1901 on 48 procs for 50000 steps with 481 atoms

unfix           myat1
next            cpt
jump            SELF loop
variable        zdes equal  -15+0.60*(19-1)
variable        zave equal xcm(H2,z)
fix             mytth2 H2 spring tether 5.5 2.5 2.5 -4.2 0
run             10000
Generated 0 of 1 mixed pair_coeff terms from geometric mixing rule
Step          Temp          E_pair         E_mol          TotEng         Press
1100000   283.43299      399.71951      18513.022      19318.274      257.06586
Loop time of 3.11718 on 48 procs for 10000 steps with 481 atoms

fix             myat1 all ave/time 1000 10 10000 v_zave v_zdes file simulation_data/abpot/19.dat
run             50000
Generated 0 of 1 mixed pair_coeff terms from geometric mixing rule
Step          Temp          E_pair         E_mol          TotEng         Press
1110000   295.54995      379.67033      18540.107      19342.647     -271.15494
Loop time of 16.1346 on 48 procs for 50000 steps with 481 atoms

unfix           myat1
next            cpt
jump            SELF loop
variable        zdes equal  -15+0.60*(20-1)
variable        zave equal xcm(H2,z)
fix             mytth2 H2 spring tether 5.5 2.5 2.5 -3.6 0
run             10000
Generated 0 of 1 mixed pair_coeff terms from geometric mixing rule
Step          Temp          E_pair         E_mol          TotEng         Press
1160000   300.28549      395.98303      18530.567      19356.195      59.75763
Loop time of 3.3042 on 48 procs for 10000 steps with 481 atoms

fix             myat1 all ave/time 1000 10 10000 v_zave v_zdes file simulation_data/abpot/20.dat
run             50000
Generated 0 of 1 mixed pair_coeff terms from geometric mixing rule
Loop time of 16.2334 on 48 procs for 50000 steps with 481 atoms

unfix           myat1
next            cpt
jump            SELF loop
variable        zdes equal  -15+0.60*(21-1)
variable        zave equal xcm(H2,z)
fix             mytth2 H2 spring tether 5.5 2.5 2.5 -3 0
run             10000
Generated 0 of 1 mixed pair_coeff terms from geometric mixing rule
Loop time of 3.26792 on 48 procs for 10000 steps with 481 atoms

fix             myat1 all ave/time 1000 10 10000 v_zave v_zdes file simulation_data/abpot/21.dat
run             50000
Generated 0 of 1 mixed pair_coeff terms from geometric mixing rule
Loop time of 15.789 on 48 procs for 50000 steps with 481 atoms

unfix           myat1
next            cpt
jump            SELF loop
variable        zdes equal  -15+0.60*(22-1)
variable        zave equal xcm(H2,z)
fix             mytth2 H2 spring tether 5.5 2.5 2.5 -2.4 0
run             10000
Generated 0 of 1 mixed pair_coeff terms from geometric mixing rule
Loop time of 3.14868 on 48 procs for 10000 steps with 481 atoms

fix             myat1 all ave/time 1000 10 10000 v_zave v_zdes file simulation_data/abpot/22.dat
run             50000
Generated 0 of 1 mixed pair_coeff terms from geometric mixing rule
Loop time of 15.8999 on 48 procs for 50000 steps with 481 atoms

unfix           myat1
next            cpt
jump            SELF loop
variable        zdes equal  -15+0.60*(23-1)
variable        zave equal xcm(H2,z)
fix             mytth2 H2 spring tether 5.5 2.5 2.5 -1.8 0
run             10000
Generated 0 of 1 mixed pair_coeff terms from geometric mixing rule
Loop time of 3.09966 on 48 procs for 10000 steps with 481 atoms

fix             myat1 all ave/time 1000 10 10000 v_zave v_zdes file simulation_data/abpot/23.dat
run             50000
Generated 0 of 1 mixed pair_coeff terms from geometric mixing rule
Loop time of 15.8051 on 48 procs for 50000 steps with 481 atoms

unfix           myat1
next            cpt
jump            SELF loop
variable        zdes equal  -15+0.60*(24-1)
variable        zave equal xcm(H2,z)
fix             mytth2 H2 spring tether 5.5 2.5 2.5 -1.2 0
run             10000
Generated 0 of 1 mixed pair_coeff terms from geometric mixing rule
Loop time of 3.15878 on 48 procs for 10000 steps with 481 atoms

fix             myat1 all ave/time 1000 10 10000 v_zave v_zdes file simulation_data/abpot/24.dat
run             50000
Generated 0 of 1 mixed pair_coeff terms from geometric mixing rule
Loop time of 15.453 on 48 procs for 50000 steps with 481 atoms

unfix           myat1
next            cpt
jump            SELF loop
variable        zdes equal  -15+0.60*(25-1)
variable        zave equal xcm(H2,z)
fix             mytth2 H2 spring tether 5.5 2.5 2.5 -0.600000000000001 0
run             10000
Generated 0 of 1 mixed pair_coeff terms from geometric mixing rule
Loop time of 3.19728 on 48 procs for 10000 steps with 481 atoms

fix             myat1 all ave/time 1000 10 10000 v_zave v_zdes file simulation_data/abpot/25.dat
run             50000
Generated 0 of 1 mixed pair_coeff terms from geometric mixing rule
Loop time of 15.5117 on 48 procs for 50000 steps with 481 atoms

unfix           myat1
next            cpt
jump            SELF loop
variable        zdes equal  -15+0.60*(26-1)
variable        zave equal xcm(H2,z)
fix             mytth2 H2 spring tether 5.5 2.5 2.5 0 0
run             10000
Generated 0 of 1 mixed pair_coeff terms from geometric mixing rule
Loop time of 3.21417 on 48 procs for 10000 steps with 481 atoms

fix             myat1 all ave/time 1000 10 10000 v_zave v_zdes file simulation_data/abpot/26.dat
run             50000
Generated 0 of 1 mixed pair_coeff terms from geometric mixing rule
Loop time of 16.0952 on 48 procs for 50000 steps with 481 atoms

unfix           myat1
next            cpt
jump            SELF loop
variable        zdes equal  -15+0.60*(27-1)
variable        zave equal xcm(H2,z)
fix             mytth2 H2 spring tether 5.5 2.5 2.5 0.6 0
run             10000
Generated 0 of 1 mixed pair_coeff terms from geometric mixing rule
Loop time of 3.24503 on 48 procs for 10000 steps with 481 atoms

fix             myat1 all ave/time 1000 10 10000 v_zave v_zdes file simulation_data/abpot/27.dat
run             50000
Generated 0 of 1 mixed pair_coeff terms from geometric mixing rule
Loop time of 16.5588 on 48 procs for 50000 steps with 481 atoms

unfix           myat1
next            cpt
jump            SELF loop
variable        zdes equal  -15+0.60*(28-1)
variable        zave equal xcm(H2,z)
fix             mytth2 H2 spring tether 5.5 2.5 2.5 1.2 0
run             10000
Generated 0 of 1 mixed pair_coeff terms from geometric mixing rule
Loop time of 3.26248 on 48 procs for 10000 steps with 481 atoms

fix             myat1 all ave/time 1000 10 10000 v_zave v_zdes file simulation_data/abpot/28.dat
run             50000
Generated 0 of 1 mixed pair_coeff terms from geometric mixing rule
Loop time of 15.8716 on 48 procs for 50000 steps with 481 atoms

unfix           myat1
next            cpt
jump            SELF loop
variable        zdes equal  -15+0.60*(29-1)
variable        zave equal xcm(H2,z)
fix             mytth2 H2 spring tether 5.5 2.5 2.5 1.8 0
run             10000
Generated 0 of 1 mixed pair_coeff terms from geometric mixing rule
Loop time of 3.18368 on 48 procs for 10000 steps with 481 atoms

fix             myat1 all ave/time 1000 10 10000 v_zave v_zdes file simulation_data/abpot/29.dat
run             50000
Generated 0 of 1 mixed pair_coeff terms from geometric mixing rule
Loop time of 15.7986 on 48 procs for 50000 steps with 481 atoms

unfix           myat1
next            cpt
jump            SELF loop
variable        zdes equal  -15+0.60*(30-1)
variable        zave equal xcm(H2,z)
fix             mytth2 H2 spring tether 5.5 2.5 2.5 2.4 0
run             10000
Generated 0 of 1 mixed pair_coeff terms from geometric mixing rule
Loop time of 3.22805 on 48 procs for 10000 steps with 481 atoms

fix             myat1 all ave/time 1000 10 10000 v_zave v_zdes file simulation_data/abpot/30.dat
run             50000
Generated 0 of 1 mixed pair_coeff terms from geometric mixing rule
Loop time of 15.4896 on 48 procs for 50000 steps with 481 atoms

unfix           myat1
next            cpt
jump            SELF loop
variable        zdes equal  -15+0.60*(31-1)
variable        zave equal xcm(H2,z)
fix             mytth2 H2 spring tether 5.5 2.5 2.5 3 0
run             10000
Generated 0 of 1 mixed pair_coeff terms from geometric mixing rule
Loop time of 3.11641 on 48 procs for 10000 steps with 481 atoms

fix             myat1 all ave/time 1000 10 10000 v_zave v_zdes file simulation_data/abpot/31.dat
run             50000
Generated 0 of 1 mixed pair_coeff terms from geometric mixing rule
Loop time of 15.7511 on 48 procs for 50000 steps with 481 atoms

unfix           myat1
next            cpt
jump            SELF loop
variable        zdes equal  -15+0.60*(32-1)
variable        zave equal xcm(H2,z)
fix             mytth2 H2 spring tether 5.5 2.5 2.5 3.6 0
run             10000
Generated 0 of 1 mixed pair_coeff terms from geometric mixing rule
Loop time of 3.20026 on 48 procs for 10000 steps with 481 atoms

fix             myat1 all ave/time 1000 10 10000 v_zave v_zdes file simulation_data/abpot/32.dat
run             50000
Generated 0 of 1 mixed pair_coeff terms from geometric mixing rule
Loop time of 15.9312 on 48 procs for 50000 steps with 481 atoms

unfix           myat1
next            cpt
jump            SELF loop
variable        zdes equal  -15+0.60*(33-1)
variable        zave equal xcm(H2,z)
fix             mytth2 H2 spring tether 5.5 2.5 2.5 4.2 0
run             10000
Generated 0 of 1 mixed pair_coeff terms from geometric mixing rule
Loop time of 3.2844 on 48 procs for 10000 steps with 481 atoms

fix             myat1 all ave/time 1000 10 10000 v_zave v_zdes file simulation_data/abpot/33.dat
run             50000
Generated 0 of 1 mixed pair_coeff terms from geometric mixing rule
Loop time of 15.6699 on 48 procs for 50000 steps with 481 atoms

unfix           myat1
next            cpt
jump            SELF loop
variable        zdes equal  -15+0.60*(34-1)
variable        zave equal xcm(H2,z)
fix             mytth2 H2 spring tether 5.5 2.5 2.5 4.8 0
run             10000
Generated 0 of 1 mixed pair_coeff terms from geometric mixing rule
Loop time of 3.17671 on 48 procs for 10000 steps with 481 atoms

fix             myat1 all ave/time 1000 10 10000 v_zave v_zdes file simulation_data/abpot/34.dat
run             50000
Generated 0 of 1 mixed pair_coeff terms from geometric mixing rule
Loop time of 15.8106 on 48 procs for 50000 steps with 481 atoms

unfix           myat1
next            cpt
jump            SELF loop
variable        zdes equal  -15+0.60*(35-1)
variable        zave equal xcm(H2,z)
fix             mytth2 H2 spring tether 5.5 2.5 2.5 5.4 0
run             10000
Generated 0 of 1 mixed pair_coeff terms from geometric mixing rule
Loop time of 3.27997 on 48 procs for 10000 steps with 481 atoms

fix             myat1 all ave/time 1000 10 10000 v_zave v_zdes file simulation_data/abpot/35.dat
run             50000
Generated 0 of 1 mixed pair_coeff terms from geometric mixing rule
Loop time of 15.8552 on 48 procs for 50000 steps with 481 atoms

unfix           myat1
next            cpt
jump            SELF loop
variable        zdes equal  -15+0.60*(36-1)
variable        zave equal xcm(H2,z)
fix             mytth2 H2 spring tether 5.5 2.5 2.5 6 0
run             10000
Generated 0 of 1 mixed pair_coeff terms from geometric mixing rule
Loop time of 3.09532 on 48 procs for 10000 steps with 481 atoms

fix             myat1 all ave/time 1000 10 10000 v_zave v_zdes file simulation_data/abpot/36.dat
run             50000
Generated 0 of 1 mixed pair_coeff terms from geometric mixing rule
Loop time of 15.4854 on 48 procs for 50000 steps with 481 atoms

unfix           myat1
next            cpt
jump            SELF loop
variable        zdes equal  -15+0.60*(37-1)
variable        zave equal xcm(H2,z)
fix             mytth2 H2 spring tether 5.5 2.5 2.5 6.6 0
run             10000
Generated 0 of 1 mixed pair_coeff terms from geometric mixing rule
Loop time of 3.07634 on 48 procs for 10000 steps with 481 atoms

fix             myat1 all ave/time 1000 10 10000 v_zave v_zdes file simulation_data/abpot/37.dat
run             50000
Generated 0 of 1 mixed pair_coeff terms from geometric mixing rule
Loop time of 15.4196 on 48 procs for 50000 steps with 481 atoms

unfix           myat1
next            cpt
jump            SELF loop
variable        zdes equal  -15+0.60*(38-1)
variable        zave equal xcm(H2,z)
fix             mytth2 H2 spring tether 5.5 2.5 2.5 7.2 0
run             10000
Generated 0 of 1 mixed pair_coeff terms from geometric mixing rule
Loop time of 3.09389 on 48 procs for 10000 steps with 481 atoms

fix             myat1 all ave/time 1000 10 10000 v_zave v_zdes file simulation_data/abpot/38.dat
run             50000
Generated 0 of 1 mixed pair_coeff terms from geometric mixing rule
Loop time of 15.436 on 48 procs for 50000 steps with 481 atoms

unfix           myat1
next            cpt
jump            SELF loop
variable        zdes equal  -15+0.60*(39-1)
variable        zave equal xcm(H2,z)
fix             mytth2 H2 spring tether 5.5 2.5 2.5 7.8 0
run             10000
Generated 0 of 1 mixed pair_coeff terms from geometric mixing rule
Loop time of 3.0486 on 48 procs for 10000 steps with 481 atoms

fix             myat1 all ave/time 1000 10 10000 v_zave v_zdes file simulation_data/abpot/39.dat
run             50000
Generated 0 of 1 mixed pair_coeff terms from geometric mixing rule
Loop time of 15.1934 on 48 procs for 50000 steps with 481 atoms

unfix           myat1
next            cpt
jump            SELF loop
variable        zdes equal  -15+0.60*(40-1)
variable        zave equal xcm(H2,z)
fix             mytth2 H2 spring tether 5.5 2.5 2.5 8.4 0
run             10000
Generated 0 of 1 mixed pair_coeff terms from geometric mixing rule
Loop time of 3.15872 on 48 procs for 10000 steps with 481 atoms

fix             myat1 all ave/time 1000 10 10000 v_zave v_zdes file simulation_data/abpot/40.dat
run             50000
Generated 0 of 1 mixed pair_coeff terms from geometric mixing rule
Loop time of 15.3932 on 48 procs for 50000 steps with 481 atoms

unfix           myat1
next            cpt
jump            SELF loop
variable        zdes equal  -15+0.60*(41-1)
variable        zave equal xcm(H2,z)
fix             mytth2 H2 spring tether 5.5 2.5 2.5 9 0
run             10000
Generated 0 of 1 mixed pair_coeff terms from geometric mixing rule
Loop time of 3.1103 on 48 procs for 10000 steps with 481 atoms

fix             myat1 all ave/time 1000 10 10000 v_zave v_zdes file simulation_data/abpot/41.dat
run             50000
Generated 0 of 1 mixed pair_coeff terms from geometric mixing rule
Loop time of 15.7854 on 48 procs for 50000 steps with 481 atoms

unfix           myat1
next            cpt
jump            SELF loop
variable        zdes equal  -15+0.60*(42-1)
variable        zave equal xcm(H2,z)
fix             mytth2 H2 spring tether 5.5 2.5 2.5 9.6 0
run             10000
Generated 0 of 1 mixed pair_coeff terms from geometric mixing rule
Loop time of 3.08467 on 48 procs for 10000 steps with 481 atoms

fix             myat1 all ave/time 1000 10 10000 v_zave v_zdes file simulation_data/abpot/42.dat
run             50000
Generated 0 of 1 mixed pair_coeff terms from geometric mixing rule
Loop time of 15.8903 on 48 procs for 50000 steps with 481 atoms

unfix           myat1
next            cpt
jump            SELF loop
variable        zdes equal  -15+0.60*(43-1)
variable        zave equal xcm(H2,z)
fix             mytth2 H2 spring tether 5.5 2.5 2.5 10.2 0
run             10000
Generated 0 of 1 mixed pair_coeff terms from geometric mixing rule
Loop time of 3.12313 on 48 procs for 10000 steps with 481 atoms

fix             myat1 all ave/time 1000 10 10000 v_zave v_zdes file simulation_data/abpot/43.dat
run             50000
Generated 0 of 1 mixed pair_coeff terms from geometric mixing rule
Loop time of 15.2996 on 48 procs for 50000 steps with 481 atoms

unfix           myat1
next            cpt
jump            SELF loop
variable        zdes equal  -15+0.60*(44-1)
variable        zave equal xcm(H2,z)
fix             mytth2 H2 spring tether 5.5 2.5 2.5 10.8 0
run             10000
Generated 0 of 1 mixed pair_coeff terms from geometric mixing rule
Loop time of 2.9593 on 48 procs for 10000 steps with 481 atoms

fix             myat1 all ave/time 1000 10 10000 v_zave v_zdes file simulation_data/abpot/44.dat
run             50000
Generated 0 of 1 mixed pair_coeff terms from geometric mixing rule
Loop time of 14.8103 on 48 procs for 50000 steps with 481 atoms

unfix           myat1
next            cpt
jump            SELF loop
variable        zdes equal  -15+0.60*(45-1)
variable        zave equal xcm(H2,z)
fix             mytth2 H2 spring tether 5.5 2.5 2.5 11.4 0
run             10000
Generated 0 of 1 mixed pair_coeff terms from geometric mixing rule
Loop time of 2.95439 on 48 procs for 10000 steps with 481 atoms

fix             myat1 all ave/time 1000 10 10000 v_zave v_zdes file simulation_data/abpot/45.dat
run             50000
Generated 0 of 1 mixed pair_coeff terms from geometric mixing rule
Loop time of 14.8922 on 48 procs for 50000 steps with 481 atoms

unfix           myat1
next            cpt
jump            SELF loop
variable        zdes equal  -15+0.60*(46-1)
variable        zave equal xcm(H2,z)
fix             mytth2 H2 spring tether 5.5 2.5 2.5 12 0
run             10000
Generated 0 of 1 mixed pair_coeff terms from geometric mixing rule
Loop time of 2.91517 on 48 procs for 10000 steps with 481 atoms

fix             myat1 all ave/time 1000 10 10000 v_zave v_zdes file simulation_data/abpot/46.dat
run             50000
Generated 0 of 1 mixed pair_coeff terms from geometric mixing rule
Loop time of 14.9358 on 48 procs for 50000 steps with 481 atoms

unfix           myat1
next            cpt
jump            SELF loop
variable        zdes equal  -15+0.60*(47-1)
variable        zave equal xcm(H2,z)
fix             mytth2 H2 spring tether 5.5 2.5 2.5 12.6 0
run             10000
Generated 0 of 1 mixed pair_coeff terms from geometric mixing rule
Loop time of 2.89244 on 48 procs for 10000 steps with 481 atoms

fix             myat1 all ave/time 1000 10 10000 v_zave v_zdes file simulation_data/abpot/47.dat
run             50000
Generated 0 of 1 mixed pair_coeff terms from geometric mixing rule
Loop time of 15.2727 on 48 procs for 50000 steps with 481 atoms

unfix           myat1
next            cpt
jump            SELF loop
variable        zdes equal  -15+0.60*(48-1)
variable        zave equal xcm(H2,z)
fix             mytth2 H2 spring tether 5.5 2.5 2.5 13.2 0
run             10000
Generated 0 of 1 mixed pair_coeff terms from geometric mixing rule
Loop time of 3.15865 on 48 procs for 10000 steps with 481 atoms

fix             myat1 all ave/time 1000 10 10000 v_zave v_zdes file simulation_data/abpot/48.dat
run             50000
Generated 0 of 1 mixed pair_coeff terms from geometric mixing rule
Loop time of 15.2861 on 48 procs for 50000 steps with 481 atoms

unfix           myat1
next            cpt
jump            SELF loop
variable        zdes equal  -15+0.60*(49-1)
variable        zave equal xcm(H2,z)
fix             mytth2 H2 spring tether 5.5 2.5 2.5 13.8 0
run             10000
Generated 0 of 1 mixed pair_coeff terms from geometric mixing rule
Loop time of 3.02635 on 48 procs for 10000 steps with 481 atoms

fix             myat1 all ave/time 1000 10 10000 v_zave v_zdes file simulation_data/abpot/49.dat
run             50000
Generated 0 of 1 mixed pair_coeff terms from geometric mixing rule
Loop time of 14.8173 on 48 procs for 50000 steps with 481 atoms

unfix           myat1
next            cpt
jump            SELF loop
variable        zdes equal  -15+0.60*(50-1)
variable        zave equal xcm(H2,z)
fix             mytth2 H2 spring tether 5.5 2.5 2.5 14.4 0
run             10000
Generated 0 of 1 mixed pair_coeff terms from geometric mixing rule
Loop time of 3.00215 on 48 procs for 10000 steps with 481 atoms

fix             myat1 all ave/time 1000 10 10000 v_zave v_zdes file simulation_data/abpot/50.dat
run             50000
Generated 0 of 1 mixed pair_coeff terms from geometric mixing rule
Loop time of 14.7847 on 48 procs for 50000 steps with 481 atoms

unfix           myat1
next            cpt
jump            SELF loop
variable        zdes equal  -15+0.60*(51-1)
variable        zave equal xcm(H2,z)
fix             mytth2 H2 spring tether 5.5 2.5 2.5 15 0
run             10000
Generated 0 of 1 mixed pair_coeff terms from geometric mixing rule
Loop time of 2.92766 on 48 procs for 10000 steps with 481 atoms

fix             myat1 all ave/time 1000 10 10000 v_zave v_zdes file simulation_data/abpot/51.dat
run             50000
Generated 0 of 1 mixed pair_coeff terms from geometric mixing rule
Loop time of 14.3903 on 48 procs for 50000 steps with 481 atoms

unfix           myat1
next            cpt
jump            SELF loop
