# --- log file ---

# 1. Initialization
units real
boundary p p p
atom_style molecular
neighbor 1 bin
neigh_modify delay 3 one 6000
pair_style sg 15

# 2. System definition
region simulation_box block  -30 30 -30 30 -30 30 units box
create_box 1 simulation_box
Created orthogonal box = (-30 -30 -30) to (30 30 30)

#3. Simulation settings
mass 1 2.016

variable alpha equal 1.713          #|
variable sigma equal 1.567          #|
variable gamma equal 0.00993        #|
variable c6 equal 12.14             #|      The parameters are all in atomic units, the conversion to kcal/mol
variable c8 equal 215.2             #|      is performed in the pair_sg.cpp file
variable c9 equal 143.1             #|
variable c10 equal 4813.9           #|
variable rc equal 8.321             #|
pair_coeff 1 1 1.713 1.567 0.00993 12.14 215.2 143.1 4813.9 8.321

# 4. Generate the initial hydrogen atoms
lattice sc 3
Lattice spacing in x,y,z = 3 3 3
create_atoms 1 box ratio 0.01 428795
Created 80 atoms
lattice none 1
group           H2 type 1
80 atoms in group H2

# Print the number of hydrogen atoms to file and
variable hydrogen atom "type==1"
group hydrogen dynamic all var hydrogen
dynamic group hydrogen defined
variable nH equal count(hydrogen)
fix myat1 all ave/time 100 10 1000 v_nH file simulation_data/hydrogen_counts/hydrogenCount_big.data

# 5. Equilibration step
thermo 1000
variable        T equal 298
velocity        all create 298 1234567 dist gaussian
#----------------------------------------------------------------
compute_modify thermo_temp dynamic yes
compute ctH2 H2 temp
compute_modify ctH2 dynamic yes
fix mynvt1 H2 nvt temp 298 298 0.1
fix_modify mynvt1 temp ctH2
timestep 0.05
thermo_style custom step temp pe ke etotal press vol
#----------------------------------------------------------------

# Fix the motion of the outer carbons

dump           test_dump all atom 100 simulation_data/dumps/just_hydrogen_big.lammpstrj

run 100000
Generated 0 of 0 mixed pair_coeff terms from geometric mixing rule
Step          Temp          PotEng         KinEng         TotEng         Press          Volume
0   298            144.50007      70.17423       214.6743       131.00278      216000
Averages over the last 51 of 101 rows, steps 50000 to 100000:
Temp PotEng KinEng TotEng Press Volume
300.373 -0.802463 70.7331 69.9306 14.9708 216000
Loop time of 2.88136 on 6 procs for 100000 steps with 80 atoms

# 6. Production step - GCMC
variable tfac equal 3.0/3.0
# variable xlo equal xlo+0.1
# variable xhi equal xhi-0.1
# variable ylo equal ylo+0.1
# variable yhi equal yhi-0.1
# variable zlo equal zlo+0.1
# variable zhi equal zhi-0.1
fix fgcmc H2 gcmc 100 100 0 1 65899 298 -0.5 0.1     tfac_insert 1 group H2     pressure 113
run 40000
Generated 0 of 0 mixed pair_coeff terms from geometric mixing rule
Step          Temp          PotEng         KinEng         TotEng         Press          Volume
100000   277.56843     -1.1864763      65.362922      64.176445      13.268711      216000
Averages over the last 21 of 41 rows, steps 120000 to 140000:
Temp PotEng KinEng TotEng Press Volume
300.81 -13.9345 284.077 270.143 54.5135 216000
Loop time of 4.65448 on 6 procs for 40000 steps with 317 atoms

# After the number of hydrogen atoms has been equilibrated,
# compute density profile for the hydrogen atoms along the absorbate direction
compute cc1 H2 chunk/atom bin/1d z 0.0 0.1
fix 1 H2 ave/chunk 100 100 10000 cc1 density/mass norm all file simulation_data/density_profiles/density_with_big.profile

run 10000
Generated 0 of 0 mixed pair_coeff terms from geometric mixing rule
Step          Temp          PotEng         KinEng         TotEng         Press          Volume
140000   285.87054     -20.11047       269.27175      249.16128      42.806522      216000
Averages over the last 6 of 11 rows, steps 145000 to 150000:
Temp PotEng KinEng TotEng Press Volume
304.621 -16.075 296.649 280.574 56.11 216000
Loop time of 1.33873 on 6 procs for 10000 steps with 336 atoms

# =================================================================================================
