# --- log file ---

# 1. Initialization
units real
boundary p p p
atom_style molecular
neighbor 1 bin
neigh_modify delay 3 one 6000
pair_style hybrid lj/cut 14 sg 15 cb 30 # Fluid-fluid interactions have a cutoff of 15 Å, fluid-solid interactions have a cutoff of 30 Å
#kspace_style pppm 1.0e-4
# No space style is needed for the absence of charges
# *--* C-C parameters *--*
bond_style harmonic
angle_style harmonic
dihedral_style opls
improper_style harmonic
# *--* C-C parameters *--*

# 2. Read the graphite platelet data file
# 3. Define potentials parameters
read_data ../geometry/carbonPlatelets/simulation_data/test.data  extra/atom/types 1
Reading data file ...
  orthogonal box = (-12.5 -12.5 -15) to (12.5 12.5 15)
  reading atoms ...
  64 atoms
  reading velocities ...
  64 velocities
  scanning bonds ...
  scanning angles ...
  scanning dihedrals ...
  scanning impropers ...
  orthogonal box = (-12.5 -12.5 -15) to (12.5 12.5 15)
  reading bonds ...
  80 bonds
  reading angles ...
  132 angles
  reading dihedrals ...
  218 dihedrals
  reading impropers ...
  36 impropers
Finding 1-2 1-3 1-4 neighbors ...
     3 = max # of 1-2 neighbors
     6 = max # of 1-3 neighbors
    18 = max # of 1-4 neighbors
    18 = max # of special neighbors
include PARM.lammps

#////////////////////////////////////////////////////////////////////////////////////////////////////////////////////////////////
#//     Filename: PARM.lammps
#//     File Type: LAMMPS input script
#//     Description: This script defines the parameters for the simulation of hydrogen absorption in graphite platelets.
#//     Author: Edoardo Cabiati
#//     Date: 2024-07-27
#////////////////////////////////////////////////////////////////////////////////////////////////////////////////////////////////

mass 2 2.016 # For now at least, in accordance with the paper by Wang and Johnson,
             # 1998, the hydrogen atoms are regarded as simple spherical atoms

# //////////////////////////////////////    C-C potentials    //////////////////////////////////////
pair_coeff 1 1 lj/cut 0.066 3.4
bond_coeff 1 469 1.4
angle_coeff 1 63 120
dihedral_coeff 1 0 7.25 0 0
improper_coeff 1 5 180
special_bonds lj 0.0 0.0 0.5
Finding 1-2 1-3 1-4 neighbors ...
     3 = max # of 1-2 neighbors
     6 = max # of 1-3 neighbors
    18 = max # of 1-4 neighbors
    18 = max # of special neighbors
# //////////////////////////////////////    C-C potentials    //////////////////////////////////////
# -------------------------------------------------------------------------------------------------
# //////////////////////////////////////    H-H potentials    //////////////////////////////////////
variable alpha equal 1.713          #|
variable sigma equal 1.567          #|
variable gamma equal 0.00993        #|
variable c6 equal 12.14             #|      The parameters are all in atomic units, the conversion to kcal/mol
variable c8 equal 215.2             #|      is performed in the pair_sg.cpp file
variable c9 equal 143.1             #|
variable c10 equal 4813.9           #|
variable rc equal 8.321             #|
pair_coeff 2 2 sg 1.713 1.567 0.00993 12.14 215.2 143.1 4813.9 8.321
#pair_coeff 2 2 sg 1.713 1.567 0.00993 12.14 215.2 143.1 4813.9 8.321 # H-H potentials
# //////////////////////////////////////    H-H potentials    //////////////////////////////////////
# -------------------------------------------------------------------------------------------------
# //////////////////////////////////////    C-H potentials    //////////////////////////////////////
# Parameters taken from the paper by Wang and Johnson, 1998
variable sigma_CC equal 3.43 # Å
variable sigma_HH equal 3.075 # Å
variable sigma_CH_geo equal sqrt(3.43*3.075)
variable sigma_CH_arit equal 0.5*(3.43+3.075)

variable P_par equal 0.57 # Å^3
variable P_perp equal 1.995 # Å^3
variable P_h equal 0.81 # Å^3
variable E_h equal 2.337e5*(1/503.23) # K * 1/503.23 kcal/mol/K = kcal/mol
variable E_c equal 1.39254e5*(1/503.23) # K * 1/503.23 kcal/mol/K = kcal/mol

variable epsilon equal 4*(5/11)*v_E_h*v_E_c*v_P_h*(v_P_par+v_P_perp/2)/(v_sigma_CH_geo^6*(v_E_h+v_E_c)) # kcal/mol
# The formula taken from paper by Wang and Johnson, 1998 to construct epsilon does not seem to be consistent with the
# results obtained from the LAMMPS simulation. We will be using the value of epsilon obtained from the simplified
# version of the CB potential as 12-6 lennard-jones potential, presented in the paper "Theoretical investigation of the
# effect of graphite interlayer spacing on hydrogen absorption" by Rachel S. Aga, C. L. Fu, Maja Krčmar, and James R. Morris.
variable epsilon_sub equal 4*0.085094 # kcal/mol
variable sigma equal 2.97 # Å

pair_coeff 1 2 cb 0.340376 2.97 0.57 1.995
#pair_coeff 1 2 lj/cut 0.3025 2.065
# //////////////////////////////////////    C-H potentials    //////////////////////////////////////

# 4. Generate the initial hydrogen atoms
lattice sc 3
Lattice spacing in x,y,z = 3 3 3
create_atoms 2 box ratio 0.05 428795
Created 40 atoms
lattice none 1
# Print the number of hydrogen atoms to file and delete the overlapping hydrogen atoms generated
variable hydrogen atom "type==2"
group hydrogen dynamic all var hydrogen
dynamic group hydrogen defined
variable nH equal count(hydrogen)
fix myat1 all ave/time 100 10 1000 v_nH file simulation_data/hydrogenCount.data

group           C type 1
64 atoms in group C
group           H2 type 2
40 atoms in group H2
delete_atoms    overlap 4 H2 C
System init for delete_atoms ...
Generated 0 of 1 mixed pair_coeff terms from geometric mixing rule
Deleted 6 atoms, new total = 98
reset_atoms     id sort yes
Generated 0 of 1 mixed pair_coeff terms from geometric mixing rule
Finding 1-2 1-3 1-4 neighbors ...
     3 = max # of 1-2 neighbors
     6 = max # of 1-3 neighbors
    18 = max # of 1-4 neighbors
    18 = max # of special neighbors

# Constrain carbon atoms
fix             myspr C spring/self 5

# 5. Equilibration step
thermo 1000
variable        T equal 298
velocity        all create 298 1234567 dist gaussian
#----------------------------------------------------------------
compute_modify thermo_temp dynamic yes
compute ctH2 H2 temp
compute_modify ctH2 dynamic yes
fix mynvt1 H2 nvt temp 298 298 0.1
fix_modify mynvt1 temp ctH2
compute ctC C temp
fix mynvt2 C nvt temp 298 298 0.1
fix_modify mynvt2 temp ctC
timestep 0.05
thermo_style custom step temp pe ke etotal press vol
#----------------------------------------------------------------

# Fix the motion of the outer carbons

dump            test_dump all atom 100 simulation_data/test.lammpstrj

run 100000

CITE-CITE-CITE-CITE-CITE-CITE-CITE-CITE-CITE-CITE-CITE-CITE-CITE

Your simulation uses code contributions which should be cited:

- Type Label Framework: https://doi.org/10.1021/acs.jpcb.3c08419

@Article{Gissinger24,
 author = {Jacob R. Gissinger, Ilia Nikiforov, Yaser Afshar, Brendon Waters, Moon-ki Choi, Daniel S. Karls, Alexander Stukowski, Wonpil Im, Hendrik Heinz, Axel Kohlmeyer, and Ellad B. Tadmor},
 title = {Type Label Framework for Bonded Force Fields in LAMMPS},
 journal = {J. Phys. Chem. B},
 year =    2024,
 volume =  128,
 number =  13,
 pages =   {3282–-3297}
}

CITE-CITE-CITE-CITE-CITE-CITE-CITE-CITE-CITE-CITE-CITE-CITE-CITE

Generated 0 of 1 mixed pair_coeff terms from geometric mixing rule
Step          Temp          PotEng         KinEng         TotEng         Press          Volume
0   298            4037.3891      86.163295      4123.5524      8711.2966      18750
Averages over the last 51 of 101 rows, steps 50000 to 100000:
Temp PotEng KinEng TotEng Press Volume
291.531 1723.51 84.2929 1807.81 41.6433 18750
Loop time of 60.7478 on 6 procs for 100000 steps with 98 atoms

# 6. Production step - GCMC
variable tfac equal 3.0/3.0
# variable xlo equal xlo+0.1
# variable xhi equal xhi-0.1
# variable ylo equal ylo+0.1
# variable yhi equal yhi-0.1
# variable zlo equal zlo+0.1
# variable zhi equal zhi-0.1
fix fgcmc H2 gcmc 100 100 0 2 65899 298 -0.5 0.1     tfac_insert 1 group H2     pressure 113
run 40000
Generated 0 of 1 mixed pair_coeff terms from geometric mixing rule
0 atoms in group FixGCMC:gcmc_exclusion_group:fgcmc
Step          Temp          PotEng         KinEng         TotEng         Press          Volume
100000   286.94332      1710.2214      82.966383      1793.1878     -246.7715       18750
Averages over the last 21 of 41 rows, steps 120000 to 140000:
Temp PotEng KinEng TotEng Press Volume
301.731 1716.24 81.9754 1798.21 77.0153 18750
Loop time of 70.9358 on 6 procs for 40000 steps with 84 atoms

write_data     ensemble_test.data
System init for write_data ...
Generated 0 of 1 mixed pair_coeff terms from geometric mixing rule
write_dump     all atom simulation_data/ensemble_test.lammpstrj
