# --- log file ---

# 1. Initialization
units real
boundary p p p
atom_style molecular
neighbor 1 bin
neigh_modify delay 3 one 6000
pair_style sg 15

# 2. System definition
region simulation_box block  -30 30 -30 30 -18 18 units box
create_box 1 simulation_box
Created orthogonal box = (-30 -30 -18) to (30 30 18)

#3. Simulation settings
mass 1 2.016

variable alpha equal 1.713          #|
variable sigma equal 1.567          #|
variable gamma equal 0.00993        #|
variable c6 equal 12.14             #|      The parameters are all in atomic units, the conversion to kcal/mol
variable c8 equal 215.2             #|      is performed in the pair_sg.cpp file
variable c9 equal 143.1             #|
variable c10 equal 4813.9           #|
variable rc equal 8.321             #|
pair_coeff 1 1 1.713 1.567 0.00993 12.14 215.2 143.1 4813.9 8.321

# 4. Generate the initial hydrogen atoms
lattice sc 3
Lattice spacing in x,y,z = 3 3 3
create_atoms 1 box ratio 0.01 428795
Created 48 atoms
lattice none 1
group           H2 type 1
48 atoms in group H2

# Print the number of hydrogen atoms to file and
variable hydrogen atom "type==1"
group hydrogen dynamic all var hydrogen
dynamic group hydrogen defined
variable nH equal count(hydrogen)
fix myat1 all ave/time 100 10 1000 v_nH file simulation_data/hydrogen_counts/hydrogenCount_small.data

# 5. Equilibration step
thermo 1000
variable        T equal 298
velocity        all create 298 1234567 dist gaussian
#----------------------------------------------------------------
compute_modify thermo_temp dynamic yes
compute ctH2 H2 temp
compute_modify ctH2 dynamic yes
fix mynvt1 H2 nvt temp 298 298 0.1
fix_modify mynvt1 temp ctH2
timestep 0.05
thermo_style custom step temp pe ke etotal press vol
#----------------------------------------------------------------

# Fix the motion of the outer carbons

dump            test_dump all atom 100 simulation_data/dumps/just_hydrogen_small.lammpstrj

run 100000
Generated 0 of 0 mixed pair_coeff terms from geometric mixing rule
Step          Temp          PotEng         KinEng         TotEng         Press          Volume
0   298            7.2911375      41.749226      49.040363      26.455698      129600
Averages over the last 51 of 101 rows, steps 50000 to 100000:
Temp PotEng KinEng TotEng Press Volume
294.271 -0.55655 41.2269 40.6703 14.1523 129600
Loop time of 1.09644 on 1 procs for 100000 steps with 48 atoms

# 6. Production step - GCMC
variable tfac equal 3.0/3.0
# variable xlo equal xlo+0.1
# variable xhi equal xhi-0.1
# variable ylo equal ylo+0.1
# variable yhi equal yhi-0.1
# variable zlo equal zlo+0.1
# variable zhi equal zhi-0.1
fix fgcmc H2 gcmc 100 100 0 1 65899 298 -0.5 0.1     tfac_insert 1 group H2     pressure 113
run 40000
Generated 0 of 0 mixed pair_coeff terms from geometric mixing rule
Step          Temp          PotEng         KinEng         TotEng         Press          Volume
100000   255.9292      -1.034484       35.855188      34.820704      11.554827      129600
Averages over the last 21 of 41 rows, steps 120000 to 140000:
Temp PotEng KinEng TotEng Press Volume
296.15 -8.66686 167.595 158.929 53.3319 129600
Loop time of 4.50798 on 1 procs for 40000 steps with 190 atoms

# After the number of hydrogen atoms has been equilibrated,
# compute density profile for the hydrogen atoms along the absorbate direction
compute cc1 H2 chunk/atom bin/1d z 0.0 0.1
fix 1 H2 ave/chunk 100 100 10000 cc1 density/mass norm all file simulation_data/density_profiles/density_with_small.profile

run 10000
Generated 0 of 0 mixed pair_coeff terms from geometric mixing rule
Step          Temp          PotEng         KinEng         TotEng         Press          Volume
140000   302.75268     -8.6460263      170.56271      161.91669      53.432734      129600
Averages over the last 6 of 11 rows, steps 145000 to 150000:
Temp PotEng KinEng TotEng Press Volume
295.926 -7.09777 161.159 154.061 52.6665 129600
Loop time of 1.17137 on 1 procs for 10000 steps with 199 atoms

# =================================================================================================
