# --- log file ---

# 1. Initialization
units real
boundary p p p
atom_style molecular
neighbor 1 bin
neigh_modify delay 3 one 6000
pair_style sg 15

# 2. System definition
region simulation_box block  -30 30 -30 30 -15 15 units box
create_box 1 simulation_box
Created orthogonal box = (-30 -30 -15) to (30 30 15)

#3. Simulation settings
mass 1 2.016

variable alpha equal 1.713          #|
variable sigma equal 1.567          #|
variable gamma equal 0.00993        #|
variable c6 equal 12.14             #|      The parameters are all in atomic units, the conversion to kcal/mol
variable c8 equal 215.2             #|      is performed in the pair_sg.cpp file
variable c9 equal 143.1             #|
variable c10 equal 4813.9           #|
variable rc equal 8.321             #|
pair_coeff 1 1 1.713 1.567 0.00993 12.14 215.2 143.1 4813.9 8.321

# 4. Generate the initial hydrogen atoms
lattice sc 3
Lattice spacing in x,y,z = 3 3 3
create_atoms 1 box ratio 0.01 428795
Created 40 atoms
lattice none 1
group           H2 type 1
40 atoms in group H2

# Print the number of hydrogen atoms to file and
variable hydrogen atom "type==1"
group hydrogen dynamic all var hydrogen
dynamic group hydrogen defined
variable nH equal count(hydrogen)
fix myat1 all ave/time 100 10 1000 v_nH file simulation_data/hydrogen_counts/hydrogenCount_medium.data

# 5. Equilibration step
thermo 1000
variable        T equal 298
velocity        all create 298 1234567 dist gaussian
#----------------------------------------------------------------
compute_modify thermo_temp dynamic yes
compute ctH2 H2 temp
compute_modify ctH2 dynamic yes
fix mynvt1 H2 nvt temp 298 298 0.1
fix_modify mynvt1 temp ctH2
timestep 0.05
thermo_style custom step temp pe ke etotal press vol
#----------------------------------------------------------------

# Fix the motion of the outer carbons

dump            test_dump all atom 100 simulation_data/dumps/just_hydrogen_medium.lammpstrj

run 100000
Generated 0 of 0 mixed pair_coeff terms from geometric mixing rule
Step          Temp          PotEng         KinEng         TotEng         Press          Volume
0   298            9.9789844      34.642974      44.621959      33.805068      108000
Averages over the last 51 of 101 rows, steps 50000 to 100000:
Temp PotEng KinEng TotEng Press Volume
283.238 -0.413026 32.9269 32.5139 13.6546 108000
Loop time of 0.992225 on 1 procs for 100000 steps with 40 atoms

# 6. Production step - GCMC
variable tfac equal 3.0/3.0
# variable xlo equal xlo+0.1
# variable xhi equal xhi-0.1
# variable ylo equal ylo+0.1
# variable yhi equal yhi-0.1
# variable zlo equal zlo+0.1
# variable zhi equal zhi-0.1
fix fgcmc H2 gcmc 100 100 0 1 65899 298 -0.5 0.1     tfac_insert 1 group H2     pressure 113
run 40000
Generated 0 of 0 mixed pair_coeff terms from geometric mixing rule
Step          Temp          PotEng         KinEng         TotEng         Press          Volume
100000   248.26945     -0.50051434     28.861719      28.361205      11.500541      108000
Averages over the last 21 of 41 rows, steps 120000 to 140000:
Temp PotEng KinEng TotEng Press Volume
294.904 -6.05468 138.242 132.187 55.1797 108000
Loop time of 3.84817 on 1 procs for 40000 steps with 159 atoms

# After the number of hydrogen atoms has been equilibrated,
# compute density profile for the hydrogen atoms along the absorbate direction
compute cc1 H2 chunk/atom bin/1d z 0.0 0.1
fix 1 H2 ave/chunk 100 100 10000 cc1 density/mass norm all file simulation_data/density_profiles/density_with_medium.profile

run 10000
Generated 0 of 0 mixed pair_coeff terms from geometric mixing rule
Step          Temp          PotEng         KinEng         TotEng         Press          Volume
140000   278.17969     -2.5050756      131.01373      128.50866      58.492743      108000
Averages over the last 6 of 11 rows, steps 145000 to 150000:
Temp PotEng KinEng TotEng Press Volume
308.179 -6.73906 142.199 135.46 55.5992 108000
Loop time of 0.968649 on 1 procs for 10000 steps with 155 atoms

# =================================================================================================
